9
-97208.40600498248
C       0.0072  -0.5687 0.0     1.4517297437249999      6.01923561735   5.2067503058e-07
C       -1.2854 0.2499  0.0     17.9533587683   -5.1623821924   3.49002255005e-07
O       1.1304  0.3147  0.0     -4.0883694515   22.5901955842   3.30876819905e-06
H       0.0392  -1.1972 0.89    -1.141572648295 -9.7469181345   7.64734244805
H       0.0392  -1.1972 -0.89   -1.141572648295 -9.7469181345   -7.64734244805
H       -1.3175 0.8784  0.89    -2.48205465155  4.933531278999999       4.3699824457
H       -1.3175 0.8784  -0.89   -2.48205465155  4.933531278999999       -4.3699824457
H       -2.1422 -0.4239 0.0     -5.5147904611   -3.0206752464999997     -8.9092739811e-09
H       1.9857  -0.1365 0.0     -2.4392777023   -10.83820307755 -6.07213606025e-08
9
-97208.37630463531
C       0.01091438      -0.56561286     6.06e-06        -5.57998207055  7.06211688575   8.5296544994
C       -1.28267379     0.24952695      0.00140126      12.064206585300001      -9.48599027425  -7.1148097855
O       1.12941716      0.31430616      -0.00087196     -1.99174548985  21.477487575999998      -1.404880336665
H       0.04444461      -1.2016553      0.88910577      -1.2182506180800001     -8.043657623149999      5.66152346815
H       0.00760588      -1.18562618     -0.88518669     2.6936103024499998      -14.03473655315 -13.899649022850001
H       -1.33804198     0.86891514      0.88438583      -1.430006894025 10.3977273322   10.2597803185
H       -1.31870767     0.8707474       -0.89765591     -1.8566095328149999     4.56311287695   -1.6715479180300001
H       -2.14517313     -0.42468869     -0.00540171     -2.148590460375 -2.29567629078  -0.34277365446999997
H       1.97562651      -0.15178212     0.01182386      -0.43474755441  -9.68324850815  -0.0215832884618
9
-97208.041987903
C       0.01458021      -0.56246406     8.641e-05       -12.35691160785 6.5072618044    15.85120032265
C       -1.27984252     0.24907129      0.0027406       6.05936062635   -12.890666468949998     -13.5075538918
O       1.12842119      0.31405278      -0.00175312     1.15019030109   19.6490324245   -2.73820901935
H       0.0495621       -1.20694485     0.8887992       -1.292308932105 -5.916916844399999      3.1585069584500003
H       -0.02371049     -1.17550793     -0.88181557     6.2383781233999995      -17.1255844447  -18.507937125450002
H       -1.35873455     0.86050926      0.87983614      -0.55196792553  15.083774935000001      15.16409413405
H       -1.32010943     0.86356824      -0.90548563     -1.199228135365 4.0113940031999995      1.297446778085
H       -2.14837039     -0.42571572     -0.01083925     1.358870326345  -1.479858758655 -0.6354463925299999
H       1.96550644      -0.16806846     0.02364611      0.68237420478   -7.872941852099999      -0.074967814229